
     RDKit          3D

 38 41  0  0  0  0  0  0  0  0999 V2000
   -2.7669   -4.2177    2.9901 C   0  0  0  0  0  0  0  0  0  0  0  0
   -3.4417   -3.3323    2.1542 C   0  0  0  0  0  0  0  0  0  0  0  0
   -2.7316   -2.3769    1.4223 C   0  0  0  0  0  0  0  0  0  0  0  0
   -1.3306   -2.2971    1.5072 C   0  0  0  0  0  0  0  0  0  0  0  0
   -0.6697   -3.1937    2.3683 C   0  0  0  0  0  0  0  0  0  0  0  0
   -1.3812   -4.1473    3.0994 C   0  0  0  0  0  0  0  0  0  0  0  0
   -0.5016   -1.2545    0.7522 C   0  0  0  0  0  0  0  0  0  0  0  0
   -0.3444    0.0463    1.5385 C   0  0  0  0  0  0  0  0  0  0  0  0
   -1.4463    0.8537    1.8720 C   0  0  0  0  0  0  0  0  0  0  0  0
   -1.2724    2.0411    2.5885 C   0  0  0  0  0  0  0  0  0  0  0  0
    0.0047    2.4356    2.9774 C   0  0  0  0  0  0  0  0  0  0  0  0
    1.1101    1.6535    2.6561 C   0  0  0  0  0  0  0  0  0  0  0  0
    0.9365    0.4653    1.9415 C   0  0  0  0  0  0  0  0  0  0  0  0
    0.2178    3.8988    3.8566 Cl  0  0  0  0  0  0  0  0  0  0  0  0
   -1.0927   -0.9547   -0.9587 S   0  0  0  0  0  0  0  0  0  0  0  0
    0.2991   -0.1829   -1.6492 C   0  0  0  0  0  0  0  0  0  0  0  0
    1.5438   -0.3802   -1.2667 N   0  0  0  0  0  0  0  0  0  0  0  0
    2.3339    0.4141   -2.0695 N   0  0  0  0  0  0  0  0  0  0  0  0
    1.5221    1.0395   -2.9034 C   0  0  0  0  0  0  0  0  0  0  0  0
    0.2094    0.6964   -2.6923 O   0  0  0  0  0  0  0  0  0  0  0  0
    1.9506    1.9632   -3.9084 C   0  0  0  0  0  0  0  0  0  0  0  0
    3.2385    2.3811   -4.2066 C   0  0  0  0  0  0  0  0  0  0  0  0
    3.1457    3.3002   -5.2796 C   0  0  0  0  0  0  0  0  0  0  0  0
    1.8096    3.3955   -5.5803 C   0  0  0  0  0  0  0  0  0  0  0  0
    1.0805    2.5957   -4.7624 O   0  0  0  0  0  0  0  0  0  0  0  0
   -3.3213   -4.9591    3.5594 H   0  0  0  0  0  0  0  0  0  0  0  0
   -4.5246   -3.3827    2.0721 H   0  0  0  0  0  0  0  0  0  0  0  0
   -3.2935   -1.6969    0.7862 H   0  0  0  0  0  0  0  0  0  0  0  0
    0.4125   -3.1533    2.4793 H   0  0  0  0  0  0  0  0  0  0  0  0
   -0.8527   -4.8328    3.7569 H   0  0  0  0  0  0  0  0  0  0  0  0
    0.4899   -1.7096    0.6297 H   0  0  0  0  0  0  0  0  0  0  0  0
   -2.4533    0.5676    1.5769 H   0  0  0  0  0  0  0  0  0  0  0  0
   -2.1366    2.6509    2.8380 H   0  0  0  0  0  0  0  0  0  0  0  0
    2.1087    1.9615    2.9540 H   0  0  0  0  0  0  0  0  0  0  0  0
    1.8156   -0.1271    1.6912 H   0  0  0  0  0  0  0  0  0  0  0  0
    4.1371    2.0536   -3.7002 H   0  0  0  0  0  0  0  0  0  0  0  0
    3.9518    3.8268   -5.7713 H   0  0  0  0  0  0  0  0  0  0  0  0
    1.2432    3.9582   -6.3098 H   0  0  0  0  0  0  0  0  0  0  0  0
  1  2  2  0
  2  3  1  0
  3  4  2  0
  4  5  1  0
  5  6  2  0
  4  7  1  0
  7  8  1  0
  8  9  2  0
  9 10  1  0
 10 11  2  0
 11 12  1  0
 12 13  2  0
 11 14  1  0
  7 15  1  0
 15 16  1  0
 16 17  2  0
 17 18  1  0
 18 19  2  0
 19 20  1  0
 19 21  1  0
 21 22  2  0
 22 23  1  0
 23 24  2  0
 24 25  1  0
  6  1  1  0
 13  8  1  0
 20 16  1  0
 25 21  1  0
  1 26  1  0
  2 27  1  0
  3 28  1  0
  5 29  1  0
  6 30  1  0
  7 31  1  0
  9 32  1  0
 10 33  1  0
 12 34  1  0
 13 35  1  0
 22 36  1  0
 23 37  1  0
 24 38  1  0
M  END
$$$$
